Circuit: * C:\Users\wmarkowski\dev-test\sources\various\sandbox\inverter-welder\elements\SG3525_basic_sim.asc

WARNING: Specified period is not longer than the sum of Trise, Tfall, and Ton for v1.  Increasing period to 1.6e-005
Limiting fall time of source v1 to 3.04932e-021
WARNING: Less than two connections to node 11.OUTPUT_A.  This node is used by A2.
WARNING: Less than two connections to node 14.OUTPUT_B.  This node is used by A5.
Direct Newton iteration failed to find .op point.  (Use ".option noopiter" to skip.)
Starting Gmin stepping
Gmin = 10
Gmin = 1.07374
Gmin = 0.115292
Gmin = 0.0123794
Gmin = 0.00132923
Gmin = 0.000142725
Gmin = 1.5325e-005
Gmin = 1.6455e-006
Gmin = 1.76685e-007
Gmin = 1.89714e-008
Gmin = 2.03704e-009
vernier = 0.5
vernier = 0.25
vernier = 0.125
vernier = 0.0625
vernier = 0.03125
vernier = 0.015625
vernier = 0.0078125
vernier = 0.00390625
vernier = 0.00195313
Gmin = 2.03704e-009
vernier = 0.000976563
vernier = 0.000488281
Gmin = 0
Gmin stepping failed

Starting source stepping with srcstepmethod=0
Source Step = 3.0303%
Source Step = 33.3333%
Source Step = 63.6364%
Source Step = 93.9394%
Source stepping succeeded in finding the operating point.


Date: Sat Jun 13 19:38:18 2020
Total elapsed time: 0.290 seconds.

tnom = 27
temp = 27
method = modified trap
totiter = 25276
traniter = 23085
tranpoints = 7270
accept = 5122
rejected = 2148
matrix size = 29
fillins = 5
solver = Normal
Thread vector: 11.2/6.2[2] 23.1/1.6[2] 2.0/1.4[2] 0.2/0.8[1]  2592/500
Matrix Compiler1: 1.45 KB object code size  0.3/0.2/[0.1]
Matrix Compiler2: off  [0.2]/0.5/0.3

