Circuit: * C:\Users\wmarkowski\dev-test\sources\various\sandbox\inverter-welder\elements\SG3525_basic_sim.asc

WARNING: Specified period is not longer than the sum of Trise, Tfall, and Ton for v1.  Increasing period to 1.6e-005
Limiting fall time of source v1 to 3.04932e-021
Direct Newton iteration failed to find .op point.  (Use ".option noopiter" to skip.)
Starting Gmin stepping
Gmin = 10
Gmin = 1.07374
Gmin = 0.115292
Gmin = 0.0123794
Gmin = 0.00132923
Gmin = 0.000142725
Gmin = 1.5325e-005
Gmin = 1.6455e-006
Gmin = 1.76685e-007
Gmin = 1.89714e-008
Gmin = 2.03704e-009
vernier = 0.5
vernier = 0.25
vernier = 0.125
vernier = 0.0625
vernier = 0.03125
vernier = 0.015625
vernier = 0.0078125
vernier = 0.00390625
vernier = 0.00195313
Gmin = 2.03704e-009
vernier = 0.000976563
vernier = 0.000488281
Gmin = 0
Gmin stepping failed

Starting source stepping with srcstepmethod=0
Source Step = 3.0303%
Source Step = 33.3333%
Source Step = 63.6364%
Source Step = 93.9394%
Source stepping succeeded in finding the operating point.

Heightened Def Con from 3.2e-005 to 3.2004e-005
Heightened Def Con from 6.39997e-005 to 6.40037e-005
Heightened Def Con from 0.000144 to 0.000144004
Heightened Def Con from 0.000146561 to 0.000146564
Heightened Def Con from 0.00016 to 0.000160004
Heightened Def Con from 0.000176 to 0.000176004
Heightened Def Con from 0.000192 to 0.000192004
Heightened Def Con from 0.000208 to 0.000208004
Heightened Def Con from 0.000224 to 0.000224004
Heightened Def Con from 0.000256 to 0.000256004
Heightened Def Con from 0.000272 to 0.000272004
Heightened Def Con from 0.000288 to 0.000288004
Heightened Def Con from 0.000304 to 0.000304004
Heightened Def Con from 0.00032 to 0.000320004
Heightened Def Con from 0.000336 to 0.000336004
Heightened Def Con from 0.000448 to 0.000448004
Heightened Def Con from 0.000704 to 0.000704004
Heightened Def Con from 0.000896 to 0.000896004
Heightened Def Con from 0.00096 to 0.000960004

Date: Sun Jun 14 20:44:30 2020
Total elapsed time: 0.730 seconds.

tnom = 27
temp = 27
method = modified trap
totiter = 62209
traniter = 59987
tranpoints = 18458
accept = 13120
rejected = 5357
matrix size = 47
fillins = 9
solver = Normal
Thread vector: 7.8/4.3[2] 2.9/2.6[2] 1.1/0.9[2] 0.1/0.7[1]  2592/500
Matrix Compiler1: 3.07 KB object code size  0.9/0.4/[0.1]
Matrix Compiler2: off  [0.3]/0.5/0.5

