Circuit: * C:\Users\wmarkowski\dev-test\sources\various\sandbox\atx-bench-power-supply\absolut_value_circuit.asc

Direct Newton iteration for .op point succeeded.

Date: Sun Mar 29 22:13:01 2020
Total elapsed time: 0.130 seconds.

tnom = 27
temp = 27
method = modified trap
totiter = 12271
traniter = 12261
tranpoints = 4418
accept = 3496
rejected = 922
matrix size = 22
fillins = 18
solver = Normal
Thread vector: 11.6/7.3[2] 1.8/3.0[1] 1.0/1.1[1] 0.2/1.3[1]  2592/500
Matrix Compiler1: 1.90 KB object code size  0.4/0.2/[0.2]
Matrix Compiler2: 2.45 KB object code size  0.3/0.3/[0.3]

