Circuit: * C:\Users\wmarkowski\dev-test\sources\various\sandbox\inverter-welder\concepts\08_magnum_power_vip_4000\reveng\magnum_power_vip_4000.asc

Limiting rise time of source v1 to 8.333e-007
Limiting fall time of source v1 to 8.333e-007
.OP point found by inspection.

Date: Fri Jun 26 22:41:14 2020
Total elapsed time: 0.530 seconds.

tnom = 27
temp = 27
method = modified trap
totiter = 93106
traniter = 93106
tranpoints = 28026
accept = 20740
rejected = 7286
matrix size = 38
fillins = 18
solver = Normal
Matrix Compiler1: 3.21 KB object code size  1.0/0.4/[0.3]
Matrix Compiler2: 3.32 KB object code size  0.7/0.5/[0.2]

