Circuit: * C:\Users\wmarkowski\dev-test\sources\various\sandbox\inverter-welder\concepts\08_magnum_power_vip_4000\reveng\magnum_power_vip_4000.asc

Limiting rise time of source v1 to 8.33333e-007
Limiting fall time of source v1 to 8.33333e-007
Direct Newton iteration for .op point succeeded.

Date: Fri Jul 03 20:40:32 2020
Total elapsed time: 1.380 seconds.

tnom = 27
temp = 27
method = modified trap
totiter = 93405
traniter = 93362
tranpoints = 27775
accept = 20644
rejected = 7131
matrix size = 110
fillins = 160
solver = Normal
Thread vector: 9.2/6.8[2] 2.8/5.1[1] 1.6/11.7[1] 0.5/86.3[1]  2592/500
Matrix Compiler1: 12.94 KB object code size  2.9/1.4/[0.8]
Matrix Compiler2: 11.51 KB object code size  1.0/2.0/[0.7]

