Circuit: * C:\Users\wmarkowski\dev-test\sources\various\sandbox\inverter-welder\concepts\08_magnum_power_vip_4000\reveng\magnum_power_vip_4000.asc

Limiting rise time of source v1 to 8.33333e-007
Limiting fall time of source v1 to 8.33333e-007
Direct Newton iteration for .op point succeeded.

Date: Fri Jul 03 21:30:02 2020
Total elapsed time: 1.722 seconds.

tnom = 27
temp = 27
method = modified trap
totiter = 90618
traniter = 90570
tranpoints = 27305
accept = 20323
rejected = 6982
matrix size = 147
fillins = 209
solver = Normal
Thread vector: 10.1/6.6[3] 3.6/2.5[3] 3.6/1.8[3] 0.8/1.2[1]  2592/500
Matrix Compiler1: 17.38 KB object code size  3.4/1.9/[1.3]
Matrix Compiler2: 15.46 KB object code size  1.5/3.5/[1.0]

