Circuit: * C:\Users\wmarkowski\dev-test\sources\various\sandbox\inverter-welder\concepts\08_magnum_power_vip_4000\reveng\magnum_power_vip_4000.asc

WARNING: Specified period is not longer than the sum of Trise, Tfall, and Ton for i1.  Increasing period to 10.006
WARNING: Specified period is not longer than the sum of Trise, Tfall, and Ton for v§welding_voltage.  Increasing period to 0.008
Limiting rise time of source v§welding_voltage to 1.56125e-018
Limiting rise time of source v1 to 8.33333e-007
Limiting fall time of source v1 to 8.33333e-007
WARNING: Less than two connections to node N021.  This node is used by V5.
Direct Newton iteration for .op point succeeded.

Date: Fri Aug 28 21:37:05 2020
Total elapsed time: 10.446 seconds.

tnom = 27
temp = 27
method = modified trap
totiter = 297072
traniter = 297024
tranpoints = 97085
accept = 73707
rejected = 23378
matrix size = 206
fillins = 276
solver = Normal
Thread vector: 20.2/14.1[4] 7.8/6.2[4] 4.7/2.8[3] 1.1/1.9[1]  2592/500
Matrix Compiler1: 24.17 KB object code size  11.0/3.8/[2.0]
Matrix Compiler2: 21.44 KB object code size  3.1/5.6/[1.5]

