Circuit: * C:\Users\wmarkowski\dev-test\sources\various\sandbox\inverter-welder\concepts\08_magnum_power_vip_4000\reveng\magnum_power_vip_4000.asc

WARNING: Specified period is not longer than the sum of Trise, Tfall, and Ton for i1.  Increasing period to 10.006
Limiting rise time of source v1 to 8.33333e-007
Limiting fall time of source v1 to 8.33333e-007
WARNING: Less than two connections to node N021.  This node is used by V5.
Direct Newton iteration for .op point succeeded.

Date: Thu Jul 16 22:13:08 2020
Total elapsed time: 7.998 seconds.

tnom = 27
temp = 27
method = modified trap
totiter = 295692
traniter = 295644
tranpoints = 96700
accept = 73460
rejected = 23240
matrix size = 206
fillins = 276
solver = Normal
Thread vector: 20.3/17.0[3] 11.2/4.5[3] 4.1/2.6[3] 1.7/22.8[1]  2592/500
Matrix Compiler1: 24.17 KB object code size  7.2/3.9/[1.5]
Matrix Compiler2: 21.44 KB object code size  3.0/4.7/[2.0]

