Circuit: * C:\Users\wmarkowski\dev-test\sources\various\sandbox\inverter-welder\concepts\08_magnum_power_vip_4000\reveng\magnum_power_vip_4000.asc

Limiting rise time of source v1 to 8.33333e-007
Limiting fall time of source v1 to 8.33333e-007
.OP point found by inspection.

Date: Sun Jun 28 21:35:35 2020
Total elapsed time: 0.550 seconds.

tnom = 27
temp = 27
method = modified trap
totiter = 92587
traniter = 92587
tranpoints = 27527
accept = 20479
rejected = 7048
matrix size = 39
fillins = 18
solver = Normal
Matrix Compiler1: 3.27 KB object code size  0.6/0.4/[0.2]
Matrix Compiler2: 3.42 KB object code size  0.3/0.4/[0.2]

