Circuit: * C:\Users\wmarkowski\dev-test\sources\various\sandbox\inverter-welder\concepts\08_magnum_power_vip_4000\reveng\magnum_power_vip_4000.asc

Limiting rise time of source v1 to 8.33333e-007
Limiting fall time of source v1 to 8.33333e-007
Direct Newton iteration for .op point succeeded.

Date: Wed Jul 01 14:44:56 2020
Total elapsed time: 1.360 seconds.

tnom = 27
temp = 27
method = modified trap
totiter = 91889
traniter = 91846
tranpoints = 27321
accept = 20353
rejected = 6968
matrix size = 110
fillins = 160
solver = Normal
Thread vector: 8.8/6.4[2] 2.8/2.3[2] 1.9/1.5[2] 0.5/1.6[1]  2592/500
Matrix Compiler1: 12.94 KB object code size  2.8/1.5/[0.6]
Matrix Compiler2: 11.51 KB object code size  1.1/1.7/[0.7]

