Circuit: * C:\Users\wmarkowski\dev-test\sources\various\sandbox\inverter-welder\concepts\08_magnum_power_vip_4000\reveng\magnum_power_vip_4000.asc

WARNING: Specified period is not longer than the sum of Trise, Tfall, and Ton for i1.  Increasing period to 10.006
WARNING: Specified period is not longer than the sum of Trise, Tfall, and Ton for v§welding_voltage.  Increasing period to 0.008
Limiting rise time of source v§welding_voltage to 1.56125e-018
Limiting rise time of source v1 to 8.33333e-007
Limiting fall time of source v1 to 8.33333e-007
WARNING: Less than two connections to node N021.  This node is used by V5.
Direct Newton iteration for .op point succeeded.

Date: Fri Aug 28 20:45:46 2020
Total elapsed time: 8.599 seconds.

tnom = 27
temp = 27
method = modified trap
totiter = 296867
traniter = 296819
tranpoints = 96938
accept = 73671
rejected = 23267
matrix size = 206
fillins = 276
solver = Normal
Thread vector: 14.3/9.9[4] 5.0/3.8[3] 4.2/3.3[4] 1.0/1.4[1]  2592/500
Matrix Compiler1: 24.17 KB object code size  5.4/2.8/[1.5]
Matrix Compiler2: 21.44 KB object code size  2.3/4.6/[1.4]

