Circuit: * C:\Users\wmarkowski\dev-test\sources\various\sandbox\usb-power-delayer\usb_power_delayer.asc

.OP point found by inspection.

Date: Tue Feb 04 09:52:00 2020
Total elapsed time: 0.073 seconds.

tnom = 27
temp = 27
method = modified trap
totiter = 2424
traniter = 2424
tranpoints = 1139
accept = 1117
rejected = 22
matrix size = 12
fillins = 0
solver = Normal
Matrix Compiler1: 794 bytes object code size  0.3/0.2/[0.1]
Matrix Compiler2: 1.01 KB object code size  0.2/0.2/[0.1]

