Circuit: * C:\Users\wmarkowski\dev-test\sources\various\sandbox\usb-power-delayer\usb_power_delayer.asc

.OP point found by inspection.

Date: Tue Jun 09 21:29:27 2020
Total elapsed time: 0.080 seconds.

tnom = 27
temp = 27
method = modified trap
totiter = 2464
traniter = 2464
tranpoints = 1151
accept = 1124
rejected = 27
matrix size = 12
fillins = 0
solver = Normal
Matrix Compiler1: 794 bytes object code size  0.2/0.1/[0.1]
Matrix Compiler2: 1.01 KB object code size  0.1/0.1/[0.1]

